    44

C        6.444851435   7.258143385   5.496953984
C        5.052687760   7.853015849   5.744021437
C        3.943283149   7.087168597   4.949212176
C        4.047999676   5.564212143   5.042028133
N        4.083224454   4.919672484   3.844165314
C        4.166261881   3.479976461   3.752346558
C        2.883915720   2.809927831   3.250674429
C        2.626404584   3.050322564   1.768785615
N        1.587104424   2.348783301   1.219132639
C        1.301241229   2.431905620  -0.204133030
C       -0.009531448   1.747932899  -0.562031641
S        0.108213753  -0.054948749  -0.210045199
C        5.087190693   9.319349022   5.245124471
O        3.771460939   9.798832228   4.953551676
P        3.444492770  11.443841091   5.101546593
O        4.043029649  11.936196204   6.390385261
O        2.016765318  11.568888943   4.700106619
C        4.709485949   7.829395576   7.239469649
O        3.904372450   7.469548225   3.570618860
O        4.080521585   4.968461367   6.130611715
O        3.299543763   3.835293417   1.092320719
H        2.979703587   7.348674336   5.424441651
H        3.609146793   8.412797031   3.596399280
H        4.030833952   5.489073239   3.000425306
H        1.162085756   1.583387841   1.739245582
H       -1.222946518  -0.298630675  -0.194049490
H        5.547152556   9.950048909   6.025768518
H        5.697493581   9.390797278   4.325957737
H        6.536168374   6.262717872   5.955444168
H        6.653304559   7.175165712   4.418722556
H        7.217501046   7.909245179   5.938066263
H        3.757502336   8.350873071   7.419563285
H        4.626885476   6.798198841   7.608161031
H        5.489902449   8.357840627   7.807966089
H        4.380436895   3.123091564   4.769066119
H        5.002777999   3.198474721   3.093995537
H        2.023832439   3.180628770   3.830875895
H        2.938803592   1.723536781   3.438612649
H        2.131588612   2.001712360  -0.794227270
H        1.239610989   3.495073319  -0.482022824
H       -0.220531706   1.902333470  -1.629492095
H       -0.834230415   2.166388440   0.030227405
O        4.417357933  12.048662593   3.890469797
H        5.104518983  12.561488266   4.358183831
