
 OpenBabel05081820123D

  9  8  0  0  0  0  0  0  0  0999 V2000
    1.0912    0.0408    0.0030 C   0  0  0  0  0  0  0  0  0  0  0  0
    2.5975    0.0636    0.0262 C   0  0  0  0  0  0  0  0  0  0  0  0
    3.1767    0.8168    0.7922 O   0  0  0  0  0  0  0  0  0  0  0  0
    3.3147   -0.7365   -0.7874 O   0  5  0  0  0  0  0  0  0  0  0  0
    0.5618   -0.9147   -0.9686 N   0  0  0  0  0  0  0  0  0  0  0  0
    0.7184   -0.2289    1.0142 H   0  0  0  0  0  0  0  0  0  0  0  0
    0.7184    1.0564   -0.2496 H   0  0  0  0  0  0  0  0  0  0  0  0
    0.8859   -1.8811   -0.7332 H   0  0  0  0  0  0  0  0  0  0  0  0
    0.8859   -0.6630   -1.9310 H   0  0  0  0  0  0  0  0  0  0  0  0
  1  5  1  0  0  0  0
  1  2  1  0  0  0  0
  1  6  1  0  0  0  0
  1  7  1  0  0  0  0
  2  3  2  0  0  0  0
  4  2  1  0  0  0  0
  5  8  1  0  0  0  0
  5  9  1  0  0  0  0
M  CHG  1   4  -1
M  END
