 462

C   -5.6803350612    5.5017116771   -7.5385259836
C   -6.9341086398    3.2982948083   -7.4988011901
C   -7.5047536111    0.9306352736   -7.5466457972
C   -7.2627303667   -1.5294430502   -7.5452902838
C   -6.1646252308   -3.7091617220   -7.4737278313
C   -4.5244195765   -5.5685311903   -7.4818910798
C   -2.3401100879   -6.7255672708   -7.5313082157
C    0.0744284381   -7.3027955322   -7.5151893784
C    2.4743745803   -7.0351581736   -7.4802507263
C    4.6890824617   -5.8334755724   -7.5415127274
C    6.2132471354   -3.9079424105   -7.5204947271
C    6.9379109088   -1.5060469073   -7.5670288221
C    7.0733913124    0.9522298387   -7.5230822704
C    6.5058051958    3.3346211900   -7.4947553620
C    5.3745938789    5.5256926876   -7.6096392019
C    3.4528494762    7.1223911076   -7.5553059799
C    1.0622977921    7.9403523845   -7.5480179849
C   -1.3819891703    7.8641884945   -7.5738070344
C   -3.7468733251    7.0696097024   -7.5271248334
C   -4.7458437859    6.3605976405   -6.8086593631
C   -6.2420409207    4.4053266098   -6.7920219588
C   -7.3091502071    2.1312803175   -6.8223836056
C   -7.4450056489   -0.3517499263   -6.8717401084
C   -6.7945082758   -2.6209894764   -6.7597828873
C   -5.5022094051   -4.7929112278   -6.8245393933
C   -3.4455319108   -6.1893654197   -6.8223436210
C   -1.1276258358   -7.0647386440   -6.8023867423
C    1.2764898612   -7.3117329507   -6.7788014028
C    3.6193395990   -6.4715821550   -6.8370758981
C    5.5467652354   -4.9367130455   -6.8491212790
C    6.6999086053   -2.7383078321   -6.8619366441
C    7.1903469966   -0.2935917283   -6.8486227149
C    6.8416784574    2.2159025938   -6.7643152089
C    6.1411712647    4.5410070370   -6.8698561695
C    4.4822969603    6.3865672029   -6.8777388325
C    2.3215709273    7.6154844381   -6.8006693989
C   -0.1616315160    8.0874286331   -6.8782023015
C   -2.5390411209    7.5898328900   -6.8132496349
C   -4.6541896892    6.2587013653   -5.3782742679
C   -6.2496722880    4.4166529397   -5.3270230679
C   -7.2332812274    2.1146292604   -5.3757012611
C   -7.4359414925   -0.3580123181   -5.4070957609
C   -6.8403175094   -2.7143625200   -5.3693615037
C   -5.5000315190   -4.8413245838   -5.4138101174
C   -3.4927570315   -6.3070756998   -5.4308206602
C   -1.1674793357   -7.0474015937   -5.3881112979
C    1.2514125019   -7.2506560928   -5.3685174187
C    3.5640594782   -6.4167842468   -5.3865207664
C    5.6482786193   -4.9671138726   -5.3967767406
C    6.7785227964   -2.7911487115   -5.4223511982
C    7.2002369602   -0.2819572269   -5.4175170129
C    6.8543035675    2.1850908661   -5.3838942281
C    6.0806494712    4.5313756875   -5.4516969680
C    4.4584889537    6.3346607760   -5.4532591621
C    2.3459592347    7.4922550536   -5.4026813769
C   -0.1113030896    7.9508016406   -5.4030340840
C   -2.5497257020    7.5848487782   -5.3915014438
C   -5.4277001775    5.3383782644   -4.6412163647
C   -6.8862652657    3.2869257262   -4.6300902596
C   -7.4999833292    0.8844359255   -4.7136301466
C   -7.2174581102   -1.5354345774   -4.6357889085
C   -6.2289236653   -3.7957549656   -4.7037140788
C   -4.5834558009   -5.7655924029   -4.6934167283
C   -2.4023674973   -6.7783678005   -4.6896629213
C    0.0383040062   -7.3217335810   -4.6527339974
C    2.4593139224   -6.9533057949   -4.6117141437
C    4.6924712160   -5.7946880413   -4.7203305064
C    6.2957758446   -3.9315296551   -4.6965748460
C    7.1306094010   -1.5582264107   -4.7069028835
C    7.1692890805    0.9783205350   -4.7012292064
C    6.5270151814    3.4204961288   -4.7262086786
C    5.3482585388    5.5250042865   -4.7603525228
C    3.4706791744    6.9363303206   -4.6862274989
C    1.1311632253    7.8705366341   -4.7075760919
C   -1.3233623067    7.8066605251   -4.6741899022
C   -3.6849557637    7.0297405812   -4.6582648337
C   -5.5348952714    5.3595390155   -3.2309219241
C   -6.8999228795    3.2588055832   -3.2196980376
C   -7.4709105776    0.9035300869   -3.2637061961
C   -7.2300186184   -1.5777841788   -3.2045691476
C   -6.1976195120   -3.7942136159   -3.2466145675
C   -4.6023402812   -5.6932942779   -3.2533053545
C   -2.4026270587   -6.8784657576   -3.2777315933
C    0.0435666873   -7.3449477823   -3.2131078631
C    2.5035909399   -7.1506471961   -3.2167026735
C    4.6517991004   -5.8048910237   -3.2554880562
C    6.2055106470   -3.8856518507   -3.2808932407
C    7.0519321108   -1.5312756695   -3.2996111678
C    7.1983071575    0.9800959450   -3.3361774255
C    6.6074713689    3.4209459769   -3.2951193229
C    5.3788698513    5.5084743263   -3.3196557364
C    3.4607890521    6.9892883862   -3.2616566936
C    1.0906939909    7.8080093814   -3.3248966578
C   -1.2927762359    7.7503051061   -3.2677218029
C   -3.5907208072    6.9332283697   -3.2302877319
C   -4.6360009920    6.3202547630   -2.4833493428
C   -6.3223370586    4.3956408239   -2.5583691680
C   -7.3793635440    2.1046100930   -2.5434575581
C   -7.4570129767   -0.3811457192   -2.5553946111
C   -6.7553137123   -2.7213629178   -2.4880364540
C   -5.4990244740   -4.8054400754   -2.5335507138
C   -3.5408626869   -6.4003693562   -2.5220436858
C   -1.1947109059   -7.2923847526   -2.5300145890
C    1.2609458795   -7.2829152148   -2.5020279362
C    3.6749528843   -6.6326339893   -2.5043618608
C    5.5265101972   -4.9142637379   -2.5142148402
C    6.6843410170   -2.7186638135   -2.5903544991
C    7.1055182725   -0.2786938505   -2.5900582606
C    6.9625024043    2.2143891052   -2.5986808982
C    6.0865150066    4.4945938114   -2.5720877589
C    4.4513216640    6.3123435933   -2.5918908111
C    2.3097302374    7.5955383441   -2.6302045594
C   -0.1127329417    7.8792532271   -2.5924326143
C   -2.4752513895    7.5352926962   -2.5620924997
C   -4.6261067262    6.3081513208   -1.0858754374
C   -6.3232686906    4.4225093575   -1.1258578555
C   -7.3445236998    2.1378779481   -1.1481150401
C   -7.4650405971   -0.3124450718   -1.1414181464
C   -6.6961285564   -2.6149755545   -1.0367945511
C   -5.3688929704   -4.7111711458   -1.1073882288
C   -3.4976178821   -6.3601073210   -1.0654840833
C   -1.2328857611   -7.3536132356   -1.1300838630
C    1.3079909531   -7.3296311244   -1.0662612591
C    3.6489767390   -6.5630408055   -1.1060043939
C    5.4680217874   -4.8940958552   -1.0793173998
C    6.6444592272   -2.6972214450   -1.1739761159
C    7.0384013671   -0.2297967051   -1.1561404115
C    6.9163686952    2.2117041564   -1.1430112073
C    6.0718466541    4.4821566860   -1.1364634674
C    4.4447076447    6.3602126590   -1.1497503875
C    2.3209732695    7.6379588552   -1.1767912581
C   -0.1197607774    8.0115260930   -1.1547574709
C   -2.5263513983    7.5534464413   -1.1159328656
C   -5.4776875176    5.3397750112   -0.4531870928
C   -6.9740990748    3.3247593363   -0.4553226078
C   -7.5473032732    0.9339310039   -0.4335288870
C   -7.2022604219   -1.4855912952   -0.3503062521
C   -6.0386719447   -3.6795365043   -0.3828144419
C   -4.5165931492   -5.6117477212   -0.3924118817
C   -2.3759181249   -6.8442675776   -0.3488335419
C    0.0266436386   -7.4560869805   -0.4345431499
C    2.4907296527   -7.1310601540   -0.4348995401
C    4.5652327601   -5.7286619232   -0.4064483440
C    6.1597409588   -3.8260254881   -0.3905748861
C    6.8681357251   -1.5075704450   -0.4347638961
C    6.9981597264    0.9505508236   -0.4533949430
C    6.5462380757    3.3677276991   -0.4885020798
C    5.2856269588    5.4566044444   -0.4934701945
C    3.3983103672    7.1029594159   -0.4735555177
C    1.1324816010    8.0254571009   -0.4067393543
C   -1.3689703049    7.9379638700   -0.4219274486
C   -3.6419437438    7.1065738642   -0.4204150501
C   -5.4442733133    5.3168914398    0.9844174213
C   -6.9663272163    3.3251218861    0.9793945367
C   -7.6127860852    0.9521735131    0.9692316342
C   -7.3229518470   -1.5398079978    1.0497480685
C   -6.0819374933   -3.7364175549    1.0642582024
C   -4.4358663141   -5.5681094574    1.0122574286
C   -2.2308197177   -6.8262855663    1.0934690321
C    0.0425877257   -7.5513233991    0.9880533753
C    2.5191810605   -7.1687022603    1.0177360298
C    4.5820276157   -5.8468659042    1.0116601042
C    6.0426625479   -3.8279241593    0.9919491288
C    6.8336372742   -1.4657622605    1.0222582336
C    6.8211464004    0.9520865323    0.9871814610
C    6.5464584303    3.3835582883    0.9417662102
C    5.1205910197    5.3984297678    0.9393929995
C    3.3833345100    7.0585839927    0.9428799637
C    1.0940682404    7.8580110674    1.0088527249
C   -1.3740130389    7.8948964083    1.0279932369
C   -3.6905309397    7.1123233194    0.9904719894
C   -4.6588059330    6.2962919404    1.6598171285
C   -6.2496083158    4.3739962940    1.6833138468
C   -7.4883468381    2.1560926862    1.7392977253
C   -7.6294414762   -0.2843297655    1.6383255307
C   -6.8358378991   -2.7021243864    1.7344009225
C   -5.2814808465   -4.6911330702    1.7470494222
C   -3.3743339395   -6.3016787929    1.7343422526
C   -1.1106180923   -7.3110205144    1.7194566941
C    1.3018757837   -7.4961839600    1.7299474905
C    3.6515133436   -6.6734035740    1.7217924549
C    5.3891261747   -4.8656680593    1.7112143231
C    6.4475614404   -2.6626392783    1.6848212392
C    6.8892867287   -0.1782886850    1.6796005377
C    6.7935130843    2.1923976098    1.6520589439
C    5.9473551190    4.4934261717    1.6200358348
C    4.3358188299    6.3429979120    1.6476188261
C    2.2563955300    7.4712767311    1.6648043519
C   -0.1312486386    7.9710635845    1.6805454838
C   -2.5435704580    7.5373138137    1.7457931560
C   -4.6094411433    6.2557918602    3.1090038932
C   -6.2730819355    4.4136135852    3.1081178021
C   -7.3616043904    2.1879482525    3.1545693455
C   -7.6436223032   -0.3151811550    3.1016300075
C   -6.8234340325   -2.6927874815    3.1924700765
C   -5.3241974480   -4.7627478425    3.2024868097
C   -3.4350662449   -6.3505303286    3.1203945710
C   -1.1411680838   -7.2941886482    3.1470625623
C    1.2943086955   -7.4728835347    3.1688858324
C    3.6781660629   -6.6439129049    3.1119392750
C    5.4404117870   -4.9744433286    3.1209306273
C    6.5064084417   -2.6887893958    3.1288318960
C    6.9618980260   -0.2657319615    3.1185793086
C    6.8352616200    2.1905126390    3.0638637351
C    5.9646805539    4.4990573770    3.0511260795
C    4.3958339629    6.3923330943    3.0858550453
C    2.2741445341    7.5060426598    3.1101613514
C   -0.1442498084    7.9578771286    3.1045010943
C   -2.5536535500    7.4786518815    3.1343495717
C   -5.5704857743    5.4172685431    3.8104621650
C   -6.9366134674    3.3690080323    3.7980454659
C   -7.6178000426    0.9414402742    3.8337007666
C   -7.3441941019   -1.5223857446    3.8885245304
C   -6.1581518032   -3.7859100985    3.8846582786
C   -4.4220106240   -5.6104923652    3.8701790963
C   -2.3664491957   -6.9563271257    3.8333232994
C    0.0764156936   -7.4329791438    3.8562450668
C    2.5559966770   -7.1664640638    3.8652380277
C    4.5910555340   -5.9054647427    3.8495928462
C    6.0215031462   -3.8767174803    3.7796034041
C    6.8980838413   -1.4934922148    3.8096433483
C    6.9835062703    0.9332525407    3.7964014982
C    6.4418455985    3.3300162918    3.7630253682
C    5.2890230422    5.5061871651    3.7714931739
C    3.4459504845    7.1201913347    3.8114187530
C    1.0602773838    7.7672966515    3.8225133669
C   -1.3696688503    7.8619812602    3.8248726919
C   -3.6645427503    7.0225228291    3.8675368626
C   -5.6521726423    5.5036860100    5.2403537392
C   -6.9909757571    3.4229417574    5.2176149030
C   -7.5492318852    0.8829381058    5.2241885778
C   -7.3457958413   -1.5613877194    5.3115057356
C   -6.1087910511   -3.6868617058    5.3144735295
C   -4.4267569660   -5.5892850254    5.3011063598
C   -2.3721093099   -6.8926063989    5.2607238045
C    0.1055215187   -7.3189606301    5.3125878920
C    2.5182961443   -7.0030427284    5.3132178507
C    4.6103558839   -5.8479512569    5.2682658415
C    6.0837957195   -3.8664707350    5.2410831568
C    6.9329895257   -1.5911527773    5.2467266390
C    7.0551295199    0.9425907897    5.2138894704
C    6.4994811284    3.3452204360    5.2463639040
C    5.3272495292    5.5395782021    5.2219357866
C    3.4266873516    7.0937425443    5.3071792797
C    1.0410429746    7.7523620542    5.2909072404
C   -1.3857277371    7.8768723857    5.2489185007
C   -3.7124634954    7.1003634588    5.2966587329
C   -4.7715032400    6.3991825180    5.9931059473
C   -6.4625335035    4.5668631438    5.9301334345
C   -7.3607999302    2.2153451746    5.9502195435
C   -7.5873848537   -0.3135333296    5.9527689648
C   -6.7166189566   -2.6298797876    6.0042015084
C   -5.4007115949   -4.6988489207    5.9584478331
C   -3.4013890291   -6.2173091192    6.0214722529
C   -1.1766249325   -7.1936478228    5.9873932435
C    1.3130575318   -7.3105751008    6.0357421510
C    3.6771458149   -6.5702102330    6.0295471870
C    5.4801688656   -4.9316630671    6.0125191919
C    6.5701032176   -2.7325186993    5.9278920365
C    7.0413719922   -0.2885288167    5.9201065358
C    6.9366263528    2.1785051313    5.9138666658
C    6.0444816732    4.4656931482    5.9207172114
C    4.5125216772    6.3941005984    6.0150569078
C    2.2538290216    7.4479400995    5.9570696657
C   -0.1792641804    7.9690198553    5.9847479988
C   -2.5553740791    7.6753595192    5.9983598494
C   -4.7731106363    6.3128384108    7.4046633906
C   -6.4938407843    4.6255447985    7.3922045954
C   -7.2939949165    2.2202574242    7.4007513014
C   -7.4587041470   -0.2218408411    7.3890286233
C   -6.6938425117   -2.5671282856    7.4022273348
C   -5.4002044264   -4.7067814215    7.3693609927
C   -3.3738310890   -6.1005165644    7.4421551682
C   -1.1380219096   -7.1400614442    7.3779573514
C    1.3584635008   -7.3500972566    7.4504924577
C    3.6899093313   -6.6524152976    7.4479955625
C    5.5275167818   -4.9367345090    7.4032191713
C    6.6680524832   -2.7028273345    7.4020501029
C    7.1586724246   -0.2764276130    7.3319488615
C    6.9624233982    2.1863003901    7.3747508192
C    6.0330321033    4.4268963142    7.3378694155
C    4.4993392167    6.3740158335    7.4120737048
C    2.2964333159    7.5033024332    7.3607653908
C   -0.1498050715    8.0329161100    7.4091838269
C   -2.5281174312    7.5239475065    7.3863267407
C   -5.6644381502    5.5375218414    8.1221403000
C   -7.0303262796    3.4532830997    8.1387017780
C   -7.5224283822    0.9611883396    8.1076949797
C   -7.1575956182   -1.3813258470    8.0561724919
C   -6.0985854493   -3.6695205543    8.1276115616
C   -4.5120748613   -5.6018455495    8.1470043905
C   -2.2392902434   -6.6789909423    8.1219123835
C    0.0901286117   -7.3138642904    8.0972622975
C    2.5938436489   -7.1424003748    8.1262820096
C    4.7419873239   -5.9114062521    8.1016021681
C    6.1243899984   -3.8736278751    8.0684651943
C    6.9071901255   -1.4727312252    8.0624205324
C    7.1852088096    0.9645288859    8.0724651585
C    6.5686314811    3.3554645301    8.1015580241
C    5.4146227745    5.5171279631    8.0254090093
C    3.4432339491    7.0961285558    8.0822007982
C    1.0891368823    7.9231504701    8.0626029238
C   -1.3757592595    7.8435326471    8.0764654615
C   -3.7458604644    7.0104857299    8.0628057045
H   -2.4392795987    4.3332439604   -3.9453282153
H   -2.2845303365    3.1226363235   -4.8202486545
H   -3.9520759576   -2.3141725248    4.5726509273
H   -2.5227057074   -2.1638450816    4.9087893701
H    0.6119533058   -3.5074608283   -6.9054069101
H   -0.3978843392   -3.2886507479   -5.6641007047
H    2.8054964039   -2.0998525960    5.7547593930
H    3.9556926072   -1.4054749240    6.5803544503
H   -0.2260937149    0.5871274643  -10.6384934175
H    0.7409039033    0.5452929109  -11.7701937204
H    2.9329978925    0.8842331131    1.9190584484
H    3.1720135595    1.8435188709    3.2082753181
H   -3.6891845917    3.9560456529    0.0992094372
H   -2.3049880336    3.4651507353    0.1472789339
H    1.9716756764    1.3291773269   -6.0133434062
H    0.5686873234    1.4868062539   -5.4425366919
H    1.5091681732   -2.8415586576    4.1979135098
H    1.8549874647   -3.5989094985    2.8847367385
H   -1.0407758937    0.2243292113   -5.8143694834
H   -0.3225152731    0.0728066165   -4.4249034495
H   -1.2935542849   -4.5730620925   -4.5535600098
H   -1.4888313296   -3.6581906472   -3.5383917320
H   -4.4814380160    1.3266991646    5.9333899210
H   -4.1837958559   -0.2460644633    5.6642713907
H    3.3729304721    0.9219046204   -3.4084473506
H    3.9148527160    2.3760040156   -3.5240262222
H    2.2116237956    2.2697992818   -0.6902560393
H    0.9492935731    3.1918347360   -1.2565385125
H   -1.3608827552    3.6673624170   -7.9339360128
H   -2.3867488593    2.5995189505   -8.5019037507
H   -3.6630861271    1.6181012854   -0.6626796151
H   -3.7441557525    0.1657201280   -0.3334417938
H   -0.9533973672   -4.5844366357   -1.1514736312
H   -1.2653507806   -3.1024717534   -0.7831995234
H    0.1144161426   -1.9848737900    2.0518880880
H    1.0418592830   -0.7047463978    1.9668251713
H   -1.5432890405    3.9609254269    2.9144834869
H   -1.0484275338    2.4320162527    2.7185123683
H    1.9611350156    4.9859025084  -12.6137863150
H    0.5367076703    4.9478869407  -12.8948793959
H   -1.1216778334   -1.7054146437   10.1618421984
H   -2.5899602834   -1.0009777615   10.3483015667
H    3.7802741835   -3.0094435058   18.0323923794
H    2.3162628745   -3.7284106359   17.8979966564
H    1.2923311346    4.4153112432   -2.9058151760
H   -0.1060213369    3.6178453778   -2.8906117144
H   -0.0618604473   -3.6414449786   -9.2026871050
H    1.3896433981   -3.8149708854   -8.6291775080
H   -3.2654522792   -3.4181717347   -2.3478261500
H   -2.9826556135   -2.0099275058   -2.7998749937
H   -3.8807291446   -1.3024284191    2.2861634826
H   -4.1496610554   -2.9240327399    2.1094066168
H    3.0520644638    1.4035173766    8.2008870818
H    2.4009726979    2.7986531875    7.6591477955
H   -3.4559595605    2.2531480978   -6.8151323567
H   -4.0995290913    2.6750752765   -5.5654826757
H   -0.1426064175   -1.6691595686  -11.6456133153
H    0.2468135663   -3.1450168063  -11.0000221484
H    2.3479881311   -1.3817695778    0.5587443257
H    1.4783287219   -0.1853554258    0.1138507276
H   -0.7273734348    0.0749509263    2.5765266755
H   -0.9819757404    0.5979960402    4.0706294812
H    0.4835333829    1.8479616769   -8.9540322144
H   -0.0325154660    0.3943766418   -8.4944469377
H    2.9653215266    1.7146604349    5.9313501659
H    3.1974740006    0.3805738377    5.1209290262
H   -1.2004923181   -1.0381074922    0.2256143335
H   -2.4684531161   -2.0263877363    0.8639632580
H   -2.7930457211   -3.1267228347   -9.9611699296
H   -2.5111988594   -2.4819599992   -8.5597672660
H   -2.9367312522    3.2375460136    4.8786866020
H   -4.2035801752    3.8009689043    4.1806966250
H    0.2889636997    1.2099340528   -0.6526348725
H   -0.2808977563   -0.0655347667   -1.4883460690
H    3.0793550742   -1.7567844798    3.0399875916
H    4.4993809053   -1.2094348590    3.4103969393
H   -0.1709909267    4.3462991486   -5.8642359064
H    0.8227586157    3.1292723830   -6.0436884845
H   -3.4916773252    0.0368020696   -2.5290279332
H   -2.1875275092   -0.1045882780   -3.5897660608
H   -1.4733959509    3.7925407181    6.6430395406
H   -0.1984351889    3.7708426301    5.5819767418
H   -3.6905851010    0.5598600583   -9.2778306147
H   -2.5591911757    0.1821650547   -8.2041749273
H    0.7550100159   -1.0276716667   -3.3367725009
H   -0.5727279813   -1.7157586570   -2.9766062631
H    1.5524477873   -3.6147065432   -3.0771806436
H    2.9125368511   -3.6369330144   -2.3821350656
H    2.6317465336   -2.3354143881   10.0075883782
H    2.8115659477   -3.8373238510   10.4194790748
H    2.2363335886   -0.7995667881   -5.0897857850
H    2.5870984889   -1.7886462164   -3.8318295438
H   -3.8590606430   -0.4565242788   12.0149485500
H   -4.3200890489   -0.0750585027   10.4922560203
H    1.1467141233    4.3439187411    9.0513621895
H    0.4997159278    4.5314326640    7.7156006254
H    4.1326644881    1.4130818064   -1.6204861168
H    3.7762910206    0.6857879439   -0.1679647116
H    2.2088357577    4.8208458996   -4.7160834165
H    1.9651306142    3.2316647881   -4.7664536849
H   -3.2301053140    0.8169729701  -14.6864890617
H   -4.5417128374    1.0628416062  -15.5252378929
H   -0.4643207705   -4.1062156766    1.9265324544
H    0.1246083457   -3.5284718911    0.6382959221
O   -1.7864054058    3.6654582212   -4.1458487214
O   -3.4046131140   -2.1348373236    5.3450882288
O   -0.1834244113   -3.0259049746   -6.6156774384
O    3.1953812855   -1.2442220660    5.9681728734
O   -0.1696993009    0.2410894163  -11.5609802596
O    2.8486125023    1.8090346760    2.2707302259
O   -3.1664941904    3.2145638671   -0.2025640501
O    1.4505025421    1.9148619108   -5.4465638929
O    2.2624952210   -3.0652143482    3.5810584162
O   -0.7750533039    0.6651397907   -5.0195097088
O   -0.6920504203   -4.0621180607   -3.9411587926
O   -4.5196532369    0.4163636763    6.2779156234
O    4.2884066821    1.4349339907   -3.3630137428
O    1.2957297157    2.5763820250   -0.5333388078
O   -1.9887964098    3.4557585526   -8.6513603697
O   -4.0514624150    0.8150398865   -1.0592190456
O   -0.5385119627   -3.7512964722   -0.8858293596
O    0.0864699243   -1.0029045373    2.1666562815
O   -0.9681153459    3.3981881961    2.3180786078
O    1.3414318121    4.4105948897  -13.0770850384
O   -1.7663643139   -1.0191444873    9.8188734511
O    2.9167200535   -3.0409157522   17.5952823877
O    0.5444767612    4.0985947023   -2.2826207325
O    0.8368912188   -3.9981602891   -9.4818568761
O   -2.5202671540   -2.8224383707   -2.5002027254
O   -3.5027259007   -2.1945976526    2.3063868336
O    3.2314561283    2.2427889818    7.6653699963
O   -3.4103790690    2.0941662346   -5.8795118441
O    0.0071041695   -2.6469394063  -11.8369699733
O    2.3407842752   -0.4046589266    0.5958960013
O   -1.3181928983    0.7589717471    3.1155080130
O   -0.0699227923    1.1346653081   -9.1202060534
O    2.9708679207    1.3165467662    4.9556766960
O   -1.7384673514   -1.8979031056    0.2237937741
O   -2.1679300952   -3.1047117491   -9.2687908957
O   -3.8947651624    3.0272272609    4.7499979683
O    0.0092336148    0.2614164649   -0.5620366956
O    3.7715395615   -1.0724569533    2.7765416589
O    0.3925448057    3.9321952328   -6.5193939425
O   -3.1296835535   -0.4031369078   -3.4272893116
O   -1.1928578233    3.9954408961    5.6289581077
O   -3.1702620524    0.9277292399   -8.4429748276
O   -0.1718481987   -0.8653489132   -2.9582945323
O    2.4963694730   -3.4533867443   -3.2754389445
O    2.4482455663   -3.2720994937    9.7220840091
O    2.1714768352   -0.9325124497   -4.0670633203
O   -4.0395659552   -0.8090462003   11.0752855379
O    1.2136543735    4.0475476112    8.1128934400
O    4.0110313449    1.5422372007   -0.6578927329
O    2.3809308387    3.9701893264   -4.2703681494
O   -4.1123466896    0.3993126408  -14.9040654188
O    0.3236005939   -3.6092726098    1.6564847951
Na   1.4182993275    3.4432503218    1.7625977591
Cl   3.0286573247   -0.2485037788   -6.9838175745
